  
       XFOIL         Version 6.99
  
 Calculated polar for: NACA 65-210                                     
  
 1 1 Reynolds number fixed          Mach number fixed         
  
 xtrf =   1.000 (top)        1.000 (bottom)  
 Mach =   0.200     Re =    15.000 e 6     Ncrit =   9.000
  
   alpha    CL        CD       CDp       CM     Top_Xtr  Bot_Xtr
  ------ -------- --------- --------- -------- -------- --------
  -4.000  -0.2792   0.00518   0.00107  -0.0400   0.6833   0.0114
  -3.500  -0.2207   0.00503   0.00092  -0.0404   0.6715   0.0131
  -3.000  -0.1623   0.00492   0.00080  -0.0408   0.6571   0.0154
  -2.500  -0.1039   0.00481   0.00069  -0.0412   0.6407   0.0190
  -2.000  -0.0456   0.00473   0.00060  -0.0416   0.6218   0.0244
  -1.500   0.0129   0.00466   0.00053  -0.0421   0.6061   0.0320
  -1.000   0.0709   0.00450   0.00046  -0.0426   0.5848   0.0823
  -0.500   0.1281   0.00423   0.00039  -0.0430   0.5504   0.2049
   0.000   0.1838   0.00415   0.00040  -0.0433   0.4702   0.3360
   1.000   0.2927   0.00456   0.00061  -0.0435   0.2110   0.5631
   1.500   0.3480   0.00497   0.00079  -0.0435   0.0963   0.6036
   2.000   0.4045   0.00531   0.00095  -0.0437   0.0334   0.6211
   2.500   0.4623   0.00544   0.00108  -0.0440   0.0234   0.6421
   3.000   0.5202   0.00556   0.00122  -0.0443   0.0211   0.6607
   3.500   0.5778   0.00574   0.00138  -0.0446   0.0153   0.6754
   4.000   0.6352   0.00595   0.00157  -0.0448   0.0112   0.6878
   4.500   0.6924   0.00618   0.00180  -0.0449   0.0089   0.7006
   5.000   0.7498   0.00639   0.00202  -0.0450   0.0086   0.7130
   5.500   0.8069   0.00662   0.00226  -0.0451   0.0081   0.7260
   6.000   0.8637   0.00690   0.00255  -0.0450   0.0073   0.7391
   6.500   0.9201   0.00723   0.00291  -0.0448   0.0067   0.7520
   7.000   0.9760   0.00760   0.00333  -0.0445   0.0063   0.7659
   7.500   1.0324   0.00791   0.00366  -0.0442   0.0062   0.7798
   8.000   1.0887   0.00822   0.00400  -0.0439   0.0061   0.7938
   8.500   1.1445   0.00858   0.00439  -0.0435   0.0056   0.8100
   9.000   1.1991   0.00907   0.00491  -0.0427   0.0043   0.8258
   9.500   1.2529   0.00964   0.00551  -0.0418   0.0036   0.8400
  10.000   1.3058   0.01027   0.00621  -0.0407   0.0028   0.8572
  10.500   1.3578   0.01098   0.00700  -0.0394   0.0024   0.8756
  11.000   1.4077   0.01185   0.00799  -0.0377   0.0019   0.9010
  11.500   1.4571   0.01269   0.00895  -0.0358   0.0017   0.9257
  12.000   1.5040   0.01360   0.01001  -0.0335   0.0016   0.9547
  12.500   1.5486   0.01471   0.01128  -0.0309   0.0014   1.0000
  13.000   1.5913   0.01607   0.01276  -0.0280   0.0013   1.0000
  13.500   1.6269   0.01788   0.01473  -0.0243   0.0010   1.0000
  14.000   1.6515   0.02005   0.01712  -0.0190   0.0010   1.0000
  14.500   1.6652   0.02176   0.01898  -0.0120   0.0009   1.0000
  15.000   1.6722   0.02433   0.02173  -0.0056   0.0009   1.0000
  15.500   1.6669   0.02819   0.02584   0.0003   0.0009   1.0000
  16.000   1.6638   0.03235   0.03019   0.0046   0.0009   1.0000
