  
       XFOIL         Version 6.99
  
 Calculated polar for: NASA SC(2)-0410 AIRFOIL                         
  
 1 1 Reynolds number fixed          Mach number fixed         
  
 xtrf =   1.000 (top)        1.000 (bottom)  
 Mach =   0.200     Re =    15.000 e 6     Ncrit =   9.000
  
   alpha    CL        CD       CDp       CM     Top_Xtr  Bot_Xtr
  ------ -------- --------- --------- -------- -------- --------
  -4.000  -0.2456   0.00547   0.00145  -0.0643   0.7021   0.0341
  -3.500  -0.1843   0.00548   0.00134  -0.0652   0.6397   0.0414
  -3.000  -0.1230   0.00549   0.00125  -0.0661   0.5792   0.0522
  -2.500  -0.0624   0.00573   0.00121  -0.0670   0.4519   0.0654
  -2.000  -0.0013   0.00589   0.00118  -0.0680   0.3408   0.0904
  -1.500   0.0607   0.00588   0.00113  -0.0691   0.2782   0.1349
  -1.000   0.1223   0.00597   0.00113  -0.0702   0.1955   0.1795
  -0.500   0.1844   0.00598   0.00114  -0.0714   0.1384   0.2406
   0.000   0.2474   0.00587   0.00115  -0.0727   0.1117   0.3282
   0.500   0.3106   0.00576   0.00118  -0.0742   0.0799   0.4309
   1.000   0.3745   0.00560   0.00123  -0.0758   0.0556   0.5596
   1.500   0.4353   0.00567   0.00133  -0.0764   0.0460   0.5967
   2.000   0.4954   0.00582   0.00145  -0.0768   0.0374   0.6103
   2.500   0.5553   0.00600   0.00158  -0.0771   0.0316   0.6168
   3.000   0.6152   0.00616   0.00172  -0.0774   0.0291   0.6233
   3.500   0.6749   0.00636   0.00188  -0.0775   0.0252   0.6265
   4.000   0.7342   0.00663   0.00211  -0.0776   0.0172   0.6339
   4.500   0.7935   0.00691   0.00235  -0.0777   0.0131   0.6406
   5.000   0.8528   0.00718   0.00261  -0.0777   0.0110   0.6482
   5.500   0.9122   0.00742   0.00285  -0.0776   0.0108   0.6540
   6.000   0.9712   0.00771   0.00313  -0.0774   0.0101   0.6592
   6.500   1.0302   0.00803   0.00345  -0.0772   0.0094   0.6672
   7.000   1.0889   0.00838   0.00380  -0.0769   0.0089   0.6702
   7.500   1.1473   0.00878   0.00421  -0.0764   0.0086   0.6715
   8.500   1.2640   0.00956   0.00502  -0.0753   0.0084   0.6801
   9.000   1.3221   0.00997   0.00545  -0.0746   0.0083   0.6844
   9.500   1.3800   0.01040   0.00589  -0.0738   0.0082   0.6869
  10.000   1.4376   0.01087   0.00638  -0.0728   0.0081   0.6881
  10.500   1.4948   0.01139   0.00693  -0.0717   0.0078   0.6928
  11.000   1.5516   0.01197   0.00755  -0.0705   0.0076   0.6982
  11.500   1.6076   0.01264   0.00825  -0.0690   0.0073   0.7021
  12.000   1.6628   0.01338   0.00904  -0.0674   0.0070   0.7044
  12.500   1.7170   0.01422   0.00995  -0.0655   0.0068   0.7096
  13.000   1.7696   0.01520   0.01104  -0.0633   0.0065   0.7164
  13.500   1.8201   0.01638   0.01234  -0.0608   0.0063   0.7207
  14.000   1.8688   0.01764   0.01373  -0.0579   0.0062   0.7275
  14.500   1.9176   0.01877   0.01497  -0.0550   0.0062   0.7355
  15.000   1.9639   0.02003   0.01633  -0.0517   0.0062   0.7419
  15.500   2.0074   0.02138   0.01781  -0.0480   0.0061   0.7522
  16.000   2.0467   0.02288   0.01943  -0.0437   0.0061   0.7606
